data_global
_chemical_name 'cif'
_chemical_absolute_configuration ' Au16 Se128 Cl32 S128 C320 H256'
_symmetry_space_group_name 'P1'
_cell_length_a      18.1906000
_cell_length_b      21.5598000
_cell_length_c      34.5782000
_cell_angle_alpha 103.6320000
_cell_angle_beta  96.7480000
_cell_angle_gamma  90.7670000
_atom_sites_Cartn_tran_matrix_11      18.1906000
_atom_sites_Cartn_tran_matrix_21       0.0000000
_atom_sites_Cartn_tran_matrix_31       0.0000000
_atom_sites_Cartn_tran_matrix_12      -0.2886054
_atom_sites_Cartn_tran_matrix_22      21.5578682
_atom_sites_Cartn_tran_matrix_32       0.0000000
_atom_sites_Cartn_tran_matrix_13      -4.0630330
_atom_sites_Cartn_tran_matrix_23      -8.2046844
_atom_sites_Cartn_tran_matrix_33      33.3440674
 
loop_
_symmetry_equiv_pos_as_xyz
'x, y, z'
 
loop_
_atom_site_type_symbol
_atom_site_label
_atom_site_fract_x
_atom_site_fract_y
_atom_site_fract_z
Au Au1   0.303590000   0.124870000   0.000250000
Au Au2   0.196410000   0.375130000   0.499750000
Se Se1   0.421220000   0.191595000   0.287405000
Se Se2   0.078780000   0.308405000   0.212595000
Se Se3   0.333045000   0.318470000   0.312175000
Se Se4   0.166955000   0.181530000   0.187825000
Se Se5   0.402120000   0.202620000   0.191600000
Se Se6   0.097880000   0.297380000   0.308400000
Se Se7   0.311510000   0.328630000   0.214415000
Se Se8   0.188490000   0.171370000   0.285585000
Se Se9   0.469075000   0.427630000   0.286345000
Se Se10   0.030925000   0.072370000   0.213655000
Se Se11   0.056000000   0.062815000   0.310730000
Se Se12   0.444000000   0.437185000   0.189270000
Se Se13   0.201630000   0.435370000   0.286965000
Se Se14   0.298370000   0.064630000   0.213035000
Se Se15   0.320505000   0.052395000   0.309590000
Se Se16   0.179495000   0.447605000   0.190410000
Cl Cl1   0.179115000   0.118715000   0.499600000
Cl Cl2   0.320885000   0.381285000   0.000400000
Cl Cl3   0.428245000   0.129530000   0.000330000
Cl Cl4   0.071755000   0.370470000   0.499670000
S S1   0.439595000   0.170175000   0.371040000
S S2   0.060405000   0.329825000   0.128960000
S S3   0.347845000   0.311980000   0.400560000
S S4   0.152155000   0.188020000   0.099440000
S S5   0.382840000   0.202140000   0.102230000
S S6   0.117160000   0.297860000   0.397770000
S S7   0.284855000   0.341485000   0.128690000
S S8   0.215145000   0.158515000   0.371310000
S S9   0.490595000   0.409655000   0.371000000
S S10   0.009405000   0.090345000   0.129000000
S S11   0.085580000   0.059270000   0.399145000
S S12   0.414420000   0.440730000   0.100855000
S S13   0.215355000   0.417785000   0.371830000
S S14   0.284645000   0.082215000   0.128170000
S S15   0.339475000   0.050885000   0.398680000
S S16   0.160525000   0.449115000   0.101320000
C C1   0.369150000   0.258000000   0.270900000
C C2   0.130850000   0.242000000   0.229100000
C C3   0.361100000   0.261900000   0.232000000
C C4   0.138900000   0.238100000   0.268000000
C C5   0.402600000   0.220400000   0.341650000
C C6   0.097400000   0.279600000   0.158350000
C C7   0.366050000   0.274300000   0.352200000
C C8   0.133950000   0.225700000   0.147800000
C C9   0.362550000   0.241350000   0.150100000
C C10   0.137450000   0.258650000   0.349900000
C C11   0.324000000   0.294350000   0.159950000
C C12   0.176000000   0.205650000   0.340050000
C C13   0.417350000   0.208600000   0.420550000
C C14   0.082650000   0.291400000   0.079450000
C C15   0.421400000   0.280650000   0.429100000
C C16   0.078600000   0.219350000   0.070900000
C C17   0.374150000   0.267150000   0.077300000
C C18   0.125850000   0.232850000   0.422700000
C C19   0.298350000   0.296150000   0.079150000
C C20   0.201650000   0.203850000   0.420850000
C C21   0.005500000   0.498000000   0.269250000
C C22   0.494500000   0.002000000   0.230750000
C C23   0.008700000   0.461100000   0.340850000
C C24   0.491300000   0.038900000   0.159150000
C C25   0.045150000   0.018600000   0.351200000
C C26   0.454850000   0.481400000   0.148800000
C C27   0.040600000   0.449100000   0.419500000
C C28   0.459400000   0.050900000   0.080500000
C C29   0.035500000   0.020900000   0.430050000
C C30   0.464500000   0.479100000   0.069950000
C C31   0.254250000   0.497500000   0.269200000
C C32   0.245750000   0.002500000   0.230800000
C C33   0.245700000   0.464400000   0.341100000
C C34   0.254300000   0.035600000   0.158900000
C C35   0.294750000   0.014300000   0.351100000
C C36   0.205250000   0.485700000   0.148900000
C C37   0.252700000   0.462800000   0.421450000
C C38   0.247300000   0.037200000   0.078550000
C C39   0.331500000   0.486550000   0.423900000
C C40   0.168500000   0.013450000   0.076100000
H H1   0.362963439   0.190326247   0.424365254
H H2   0.137036561   0.309673753   0.075634746
H H3   0.458464849   0.191308124   0.440986780
H H4   0.041535151   0.308691876   0.059013220
H H5   0.475033093   0.298959585   0.424099780
H H6   0.024966907   0.201040415   0.075900220
H H7   0.412743555   0.301111500   0.460334678
H H8   0.087256445   0.198888500   0.039665322
H H9   0.419005546   0.303020778   0.090313597
H H10   0.080994454   0.196979222   0.409686403
H H11   0.381422887   0.244493126   0.046150434
H H12   0.118577113   0.255506874   0.453849566
H H13   0.254164950   0.258973744   0.068268214
H H14   0.245835050   0.241026256   0.431731786
H H15   0.292457178   0.331491018   0.060844971
H H16   0.207542822   0.168508982   0.439155029
H H17   0.014913425   0.427845576   0.440803254
H H18   0.485086575   0.072154424   0.059196746
H H19   0.098156607   0.435026280   0.420372321
H H20   0.401843393   0.064973720   0.079627679
H H21   0.063522457   0.041060284   0.460403413
H H22   0.436477543   0.458939716   0.039596587
H H23   0.478303527   0.035964624   0.428492645
H H24   0.021696473   0.464035376   0.071507355
H H25   0.216630839   0.502134191   0.431584737
H H26   0.283369161   0.997865809   0.068415263
H H27   0.249381833   0.428188242   0.440057151
H H28   0.250618167   0.071811758   0.059942849
H H29   0.367151345   0.448100717   0.411645863
H H30   0.132848655   0.051899283   0.088354137
H H31   0.353332331   0.008726053   0.455160687
H H32   0.146667669   0.491273947   0.044839313
Au Au3   0.303590000   0.124870000   0.500250000
Au Au4   0.196410000   0.375130000   0.999750000
Se Se17   0.421220000   0.191595000   0.787405000
Se Se18   0.078780000   0.308405000   0.712595000
Se Se19   0.333045000   0.318470000   0.812175000
Se Se20   0.166955000   0.181530000   0.687825000
Se Se21   0.402120000   0.202620000   0.691600000
Se Se22   0.097880000   0.297380000   0.808400000
Se Se23   0.311510000   0.328630000   0.714415000
Se Se24   0.188490000   0.171370000   0.785585000
Se Se25   0.469075000   0.427630000   0.786345000
Se Se26   0.030925000   0.072370000   0.713655000
Se Se27   0.056000000   0.062815000   0.810730000
Se Se28   0.444000000   0.437185000   0.689270000
Se Se29   0.201630000   0.435370000   0.786965000
Se Se30   0.298370000   0.064630000   0.713035000
Se Se31   0.320505000   0.052395000   0.809590000
Se Se32   0.179495000   0.447605000   0.690410000
Cl Cl5   0.179115000   0.118715000   0.999600000
Cl Cl6   0.320885000   0.381285000   0.500400000
Cl Cl7   0.428245000   0.129530000   0.500330000
Cl Cl8   0.071755000   0.370470000   0.999670000
S S17   0.439595000   0.170175000   0.871040000
S S18   0.060405000   0.329825000   0.628960000
S S19   0.347845000   0.311980000   0.900560000
S S20   0.152155000   0.188020000   0.599440000
S S21   0.382840000   0.202140000   0.602230000
S S22   0.117160000   0.297860000   0.897770000
S S23   0.284855000   0.341485000   0.628690000
S S24   0.215145000   0.158515000   0.871310000
S S25   0.490595000   0.409655000   0.871000000
S S26   0.009405000   0.090345000   0.629000000
S S27   0.085580000   0.059270000   0.899145000
S S28   0.414420000   0.440730000   0.600855000
S S29   0.215355000   0.417785000   0.871830000
S S30   0.284645000   0.082215000   0.628170000
S S31   0.339475000   0.050885000   0.898680000
S S32   0.160525000   0.449115000   0.601320000
C C41   0.369150000   0.258000000   0.770900000
C C42   0.130850000   0.242000000   0.729100000
C C43   0.361100000   0.261900000   0.732000000
C C44   0.138900000   0.238100000   0.768000000
C C45   0.402600000   0.220400000   0.841650000
C C46   0.097400000   0.279600000   0.658350000
C C47   0.366050000   0.274300000   0.852200000
C C48   0.133950000   0.225700000   0.647800000
C C49   0.362550000   0.241350000   0.650100000
C C50   0.137450000   0.258650000   0.849900000
C C51   0.324000000   0.294350000   0.659950000
C C52   0.176000000   0.205650000   0.840050000
C C53   0.417350000   0.208600000   0.920550000
C C54   0.082650000   0.291400000   0.579450000
C C55   0.421400000   0.280650000   0.929100000
C C56   0.078600000   0.219350000   0.570900000
C C57   0.374150000   0.267150000   0.577300000
C C58   0.125850000   0.232850000   0.922700000
C C59   0.298350000   0.296150000   0.579150000
C C60   0.201650000   0.203850000   0.920850000
C C61   0.005500000   0.498000000   0.769250000
C C62   0.494500000   0.002000000   0.730750000
C C63   0.008700000   0.461100000   0.840850000
C C64   0.491300000   0.038900000   0.659150000
C C65   0.045150000   0.018600000   0.851200000
C C66   0.454850000   0.481400000   0.648800000
C C67   0.040600000   0.449100000   0.919500000
C C68   0.459400000   0.050900000   0.580500000
C C69   0.035500000   0.020900000   0.930050000
C C70   0.464500000   0.479100000   0.569950000
C C71   0.254250000   0.497500000   0.769200000
C C72   0.245750000   0.002500000   0.730800000
C C73   0.245700000   0.464400000   0.841100000
C C74   0.254300000   0.035600000   0.658900000
C C75   0.294750000   0.014300000   0.851100000
C C76   0.205250000   0.485700000   0.648900000
C C77   0.252700000   0.462800000   0.921450000
C C78   0.247300000   0.037200000   0.578550000
C C79   0.331500000   0.486550000   0.923900000
C C80   0.168500000   0.013450000   0.576100000
H H33   0.362963439   0.190326247   0.924365254
H H34   0.137036561   0.309673753   0.575634746
H H35   0.458464849   0.191308124   0.940986780
H H36   0.041535151   0.308691876   0.559013220
H H37   0.475033093   0.298959585   0.924099780
H H38   0.024966907   0.201040415   0.575900220
H H39   0.412743555   0.301111500   0.960334678
H H40   0.087256445   0.198888500   0.539665322
H H41   0.419005546   0.303020778   0.590313597
H H42   0.080994454   0.196979222   0.909686403
H H43   0.381422887   0.244493126   0.546150434
H H44   0.118577113   0.255506874   0.953849566
H H45   0.254164950   0.258973744   0.568268214
H H46   0.245835050   0.241026256   0.931731786
H H47   0.292457178   0.331491018   0.560844971
H H48   0.207542822   0.168508982   0.939155029
H H49   0.014913425   0.427845576   0.940803254
H H50   0.485086575   0.072154424   0.559196746
H H51   0.098156607   0.435026280   0.920372321
H H52   0.401843393   0.064973720   0.579627679
H H53   0.063522457   0.041060284   0.960403413
H H54   0.436477543   0.458939716   0.539596587
H H55   0.478303527   0.035964624   0.928492645
H H56   0.021696473   0.464035376   0.571507355
H H57   0.216630839   0.502134191   0.931584737
H H58   0.283369161   0.997865809   0.568415263
H H59   0.249381833   0.428188242   0.940057151
H H60   0.250618167   0.071811758   0.559942849
H H61   0.367151345   0.448100717   0.911645863
H H62   0.132848655   0.051899283   0.588354137
H H63   0.353332331   0.008726053   0.955160687
H H64   0.146667669   0.491273947   0.544839313
Au Au5   0.303590000   0.624870000   0.000250000
Au Au6   0.196410000   0.875130000   0.499750000
Se Se33   0.421220000   0.691595000   0.287405000
Se Se34   0.078780000   0.808405000   0.212595000
Se Se35   0.333045000   0.818470000   0.312175000
Se Se36   0.166955000   0.681530000   0.187825000
Se Se37   0.402120000   0.702620000   0.191600000
Se Se38   0.097880000   0.797380000   0.308400000
Se Se39   0.311510000   0.828630000   0.214415000
Se Se40   0.188490000   0.671370000   0.285585000
Se Se41   0.469075000   0.927630000   0.286345000
Se Se42   0.030925000   0.572370000   0.213655000
Se Se43   0.056000000   0.562815000   0.310730000
Se Se44   0.444000000   0.937185000   0.189270000
Se Se45   0.201630000   0.935370000   0.286965000
Se Se46   0.298370000   0.564630000   0.213035000
Se Se47   0.320505000   0.552395000   0.309590000
Se Se48   0.179495000   0.947605000   0.190410000
Cl Cl9   0.179115000   0.618715000   0.499600000
Cl Cl10   0.320885000   0.881285000   0.000400000
Cl Cl11   0.428245000   0.629530000   0.000330000
Cl Cl12   0.071755000   0.870470000   0.499670000
S S33   0.439595000   0.670175000   0.371040000
S S34   0.060405000   0.829825000   0.128960000
S S35   0.347845000   0.811980000   0.400560000
S S36   0.152155000   0.688020000   0.099440000
S S37   0.382840000   0.702140000   0.102230000
S S38   0.117160000   0.797860000   0.397770000
S S39   0.284855000   0.841485000   0.128690000
S S40   0.215145000   0.658515000   0.371310000
S S41   0.490595000   0.909655000   0.371000000
S S42   0.009405000   0.590345000   0.129000000
S S43   0.085580000   0.559270000   0.399145000
S S44   0.414420000   0.940730000   0.100855000
S S45   0.215355000   0.917785000   0.371830000
S S46   0.284645000   0.582215000   0.128170000
S S47   0.339475000   0.550885000   0.398680000
S S48   0.160525000   0.949115000   0.101320000
C C81   0.369150000   0.758000000   0.270900000
C C82   0.130850000   0.742000000   0.229100000
C C83   0.361100000   0.761900000   0.232000000
C C84   0.138900000   0.738100000   0.268000000
C C85   0.402600000   0.720400000   0.341650000
C C86   0.097400000   0.779600000   0.158350000
C C87   0.366050000   0.774300000   0.352200000
C C88   0.133950000   0.725700000   0.147800000
C C89   0.362550000   0.741350000   0.150100000
C C90   0.137450000   0.758650000   0.349900000
C C91   0.324000000   0.794350000   0.159950000
C C92   0.176000000   0.705650000   0.340050000
C C93   0.417350000   0.708600000   0.420550000
C C94   0.082650000   0.791400000   0.079450000
C C95   0.421400000   0.780650000   0.429100000
C C96   0.078600000   0.719350000   0.070900000
C C97   0.374150000   0.767150000   0.077300000
C C98   0.125850000   0.732850000   0.422700000
C C99   0.298350000   0.796150000   0.079150000
C C100   0.201650000   0.703850000   0.420850000
C C101   0.005500000   0.998000000   0.269250000
C C102   0.494500000   0.502000000   0.230750000
C C103   0.008700000   0.961100000   0.340850000
C C104   0.491300000   0.538900000   0.159150000
C C105   0.045150000   0.518600000   0.351200000
C C106   0.454850000   0.981400000   0.148800000
C C107   0.040600000   0.949100000   0.419500000
C C108   0.459400000   0.550900000   0.080500000
C C109   0.035500000   0.520900000   0.430050000
C C110   0.464500000   0.979100000   0.069950000
C C111   0.254250000   0.997500000   0.269200000
C C112   0.245750000   0.502500000   0.230800000
C C113   0.245700000   0.964400000   0.341100000
C C114   0.254300000   0.535600000   0.158900000
C C115   0.294750000   0.514300000   0.351100000
C C116   0.205250000   0.985700000   0.148900000
C C117   0.252700000   0.962800000   0.421450000
C C118   0.247300000   0.537200000   0.078550000
C C119   0.331500000   0.986550000   0.423900000
C C120   0.168500000   0.513450000   0.076100000
H H65   0.362963439   0.690326247   0.424365254
H H66   0.137036561   0.809673753   0.075634746
H H67   0.458464849   0.691308124   0.440986780
H H68   0.041535151   0.808691876   0.059013220
H H69   0.475033093   0.798959585   0.424099780
H H70   0.024966907   0.701040415   0.075900220
H H71   0.412743555   0.801111500   0.460334678
H H72   0.087256445   0.698888500   0.039665322
H H73   0.419005546   0.803020778   0.090313597
H H74   0.080994454   0.696979222   0.409686403
H H75   0.381422887   0.744493126   0.046150434
H H76   0.118577113   0.755506874   0.453849566
H H77   0.254164950   0.758973744   0.068268214
H H78   0.245835050   0.741026256   0.431731786
H H79   0.292457178   0.831491018   0.060844971
H H80   0.207542822   0.668508982   0.439155029
H H81   0.014913425   0.927845576   0.440803254
H H82   0.485086575   0.572154424   0.059196746
H H83   0.098156607   0.935026280   0.420372321
H H84   0.401843393   0.564973720   0.079627679
H H85   0.063522457   0.541060284   0.460403413
H H86   0.436477543   0.958939716   0.039596587
H H87   0.478303527   0.535964624   0.428492645
H H88   0.021696473   0.964035376   0.071507355
H H89   0.216630839   0.002134191   0.431584737
H H90   0.283369161   0.497865809   0.068415263
H H91   0.249381833   0.928188242   0.440057151
H H92   0.250618167   0.571811758   0.059942849
H H93   0.367151345   0.948100717   0.411645863
H H94   0.132848655   0.551899283   0.088354137
H H95   0.353332331   0.508726053   0.455160687
H H96   0.146667669   0.991273947   0.044839313
Au Au7   0.303590000   0.624870000   0.500250000
Au Au8   0.196410000   0.875130000   0.999750000
Se Se49   0.421220000   0.691595000   0.787405000
Se Se50   0.078780000   0.808405000   0.712595000
Se Se51   0.333045000   0.818470000   0.812175000
Se Se52   0.166955000   0.681530000   0.687825000
Se Se53   0.402120000   0.702620000   0.691600000
Se Se54   0.097880000   0.797380000   0.808400000
Se Se55   0.311510000   0.828630000   0.714415000
Se Se56   0.188490000   0.671370000   0.785585000
Se Se57   0.469075000   0.927630000   0.786345000
Se Se58   0.030925000   0.572370000   0.713655000
Se Se59   0.056000000   0.562815000   0.810730000
Se Se60   0.444000000   0.937185000   0.689270000
Se Se61   0.201630000   0.935370000   0.786965000
Se Se62   0.298370000   0.564630000   0.713035000
Se Se63   0.320505000   0.552395000   0.809590000
Se Se64   0.179495000   0.947605000   0.690410000
Cl Cl13   0.179115000   0.618715000   0.999600000
Cl Cl14   0.320885000   0.881285000   0.500400000
Cl Cl15   0.428245000   0.629530000   0.500330000
Cl Cl16   0.071755000   0.870470000   0.999670000
S S49   0.439595000   0.670175000   0.871040000
S S50   0.060405000   0.829825000   0.628960000
S S51   0.347845000   0.811980000   0.900560000
S S52   0.152155000   0.688020000   0.599440000
S S53   0.382840000   0.702140000   0.602230000
S S54   0.117160000   0.797860000   0.897770000
S S55   0.284855000   0.841485000   0.628690000
S S56   0.215145000   0.658515000   0.871310000
S S57   0.490595000   0.909655000   0.871000000
S S58   0.009405000   0.590345000   0.629000000
S S59   0.085580000   0.559270000   0.899145000
S S60   0.414420000   0.940730000   0.600855000
S S61   0.215355000   0.917785000   0.871830000
S S62   0.284645000   0.582215000   0.628170000
S S63   0.339475000   0.550885000   0.898680000
S S64   0.160525000   0.949115000   0.601320000
C C121   0.369150000   0.758000000   0.770900000
C C122   0.130850000   0.742000000   0.729100000
C C123   0.361100000   0.761900000   0.732000000
C C124   0.138900000   0.738100000   0.768000000
C C125   0.402600000   0.720400000   0.841650000
C C126   0.097400000   0.779600000   0.658350000
C C127   0.366050000   0.774300000   0.852200000
C C128   0.133950000   0.725700000   0.647800000
C C129   0.362550000   0.741350000   0.650100000
C C130   0.137450000   0.758650000   0.849900000
C C131   0.324000000   0.794350000   0.659950000
C C132   0.176000000   0.705650000   0.840050000
C C133   0.417350000   0.708600000   0.920550000
C C134   0.082650000   0.791400000   0.579450000
C C135   0.421400000   0.780650000   0.929100000
C C136   0.078600000   0.719350000   0.570900000
C C137   0.374150000   0.767150000   0.577300000
C C138   0.125850000   0.732850000   0.922700000
C C139   0.298350000   0.796150000   0.579150000
C C140   0.201650000   0.703850000   0.920850000
C C141   0.005500000   0.998000000   0.769250000
C C142   0.494500000   0.502000000   0.730750000
C C143   0.008700000   0.961100000   0.840850000
C C144   0.491300000   0.538900000   0.659150000
C C145   0.045150000   0.518600000   0.851200000
C C146   0.454850000   0.981400000   0.648800000
C C147   0.040600000   0.949100000   0.919500000
C C148   0.459400000   0.550900000   0.580500000
C C149   0.035500000   0.520900000   0.930050000
C C150   0.464500000   0.979100000   0.569950000
C C151   0.254250000   0.997500000   0.769200000
C C152   0.245750000   0.502500000   0.730800000
C C153   0.245700000   0.964400000   0.841100000
C C154   0.254300000   0.535600000   0.658900000
C C155   0.294750000   0.514300000   0.851100000
C C156   0.205250000   0.985700000   0.648900000
C C157   0.252700000   0.962800000   0.921450000
C C158   0.247300000   0.537200000   0.578550000
C C159   0.331500000   0.986550000   0.923900000
C C160   0.168500000   0.513450000   0.576100000
H H97   0.362963439   0.690326247   0.924365254
H H98   0.137036561   0.809673753   0.575634746
H H99   0.458464849   0.691308124   0.940986780
H H100   0.041535151   0.808691876   0.559013220
H H101   0.475033093   0.798959585   0.924099780
H H102   0.024966907   0.701040415   0.575900220
H H103   0.412743555   0.801111500   0.960334678
H H104   0.087256445   0.698888500   0.539665322
H H105   0.419005546   0.803020778   0.590313597
H H106   0.080994454   0.696979222   0.909686403
H H107   0.381422887   0.744493126   0.546150434
H H108   0.118577113   0.755506874   0.953849566
H H109   0.254164950   0.758973744   0.568268214
H H110   0.245835050   0.741026256   0.931731786
H H111   0.292457178   0.831491018   0.560844971
H H112   0.207542822   0.668508982   0.939155029
H H113   0.014913425   0.927845576   0.940803254
H H114   0.485086575   0.572154424   0.559196746
H H115   0.098156607   0.935026280   0.920372321
H H116   0.401843393   0.564973720   0.579627679
H H117   0.063522457   0.541060284   0.960403413
H H118   0.436477543   0.958939716   0.539596587
H H119   0.478303527   0.535964624   0.928492645
H H120   0.021696473   0.964035376   0.571507355
H H121   0.216630839   0.002134191   0.931584737
H H122   0.283369161   0.497865809   0.568415263
H H123   0.249381833   0.928188242   0.940057151
H H124   0.250618167   0.571811758   0.559942849
H H125   0.367151345   0.948100717   0.911645863
H H126   0.132848655   0.551899283   0.588354137
H H127   0.353332331   0.508726053   0.955160687
H H128   0.146667669   0.991273947   0.544839313
Au Au9   0.803590000   0.124870000   0.000250000
Au Au10   0.696410000   0.375130000   0.499750000
Se Se65   0.921220000   0.191595000   0.287405000
Se Se66   0.578780000   0.308405000   0.212595000
Se Se67   0.833045000   0.318470000   0.312175000
Se Se68   0.666955000   0.181530000   0.187825000
Se Se69   0.902120000   0.202620000   0.191600000
Se Se70   0.597880000   0.297380000   0.308400000
Se Se71   0.811510000   0.328630000   0.214415000
Se Se72   0.688490000   0.171370000   0.285585000
Se Se73   0.969075000   0.427630000   0.286345000
Se Se74   0.530925000   0.072370000   0.213655000
Se Se75   0.556000000   0.062815000   0.310730000
Se Se76   0.944000000   0.437185000   0.189270000
Se Se77   0.701630000   0.435370000   0.286965000
Se Se78   0.798370000   0.064630000   0.213035000
Se Se79   0.820505000   0.052395000   0.309590000
Se Se80   0.679495000   0.447605000   0.190410000
Cl Cl17   0.679115000   0.118715000   0.499600000
Cl Cl18   0.820885000   0.381285000   0.000400000
Cl Cl19   0.928245000   0.129530000   0.000330000
Cl Cl20   0.571755000   0.370470000   0.499670000
S S65   0.939595000   0.170175000   0.371040000
S S66   0.560405000   0.329825000   0.128960000
S S67   0.847845000   0.311980000   0.400560000
S S68   0.652155000   0.188020000   0.099440000
S S69   0.882840000   0.202140000   0.102230000
S S70   0.617160000   0.297860000   0.397770000
S S71   0.784855000   0.341485000   0.128690000
S S72   0.715145000   0.158515000   0.371310000
S S73   0.990595000   0.409655000   0.371000000
S S74   0.509405000   0.090345000   0.129000000
S S75   0.585580000   0.059270000   0.399145000
S S76   0.914420000   0.440730000   0.100855000
S S77   0.715355000   0.417785000   0.371830000
S S78   0.784645000   0.082215000   0.128170000
S S79   0.839475000   0.050885000   0.398680000
S S80   0.660525000   0.449115000   0.101320000
C C161   0.869150000   0.258000000   0.270900000
C C162   0.630850000   0.242000000   0.229100000
C C163   0.861100000   0.261900000   0.232000000
C C164   0.638900000   0.238100000   0.268000000
C C165   0.902600000   0.220400000   0.341650000
C C166   0.597400000   0.279600000   0.158350000
C C167   0.866050000   0.274300000   0.352200000
C C168   0.633950000   0.225700000   0.147800000
C C169   0.862550000   0.241350000   0.150100000
C C170   0.637450000   0.258650000   0.349900000
C C171   0.824000000   0.294350000   0.159950000
C C172   0.676000000   0.205650000   0.340050000
C C173   0.917350000   0.208600000   0.420550000
C C174   0.582650000   0.291400000   0.079450000
C C175   0.921400000   0.280650000   0.429100000
C C176   0.578600000   0.219350000   0.070900000
C C177   0.874150000   0.267150000   0.077300000
C C178   0.625850000   0.232850000   0.422700000
C C179   0.798350000   0.296150000   0.079150000
C C180   0.701650000   0.203850000   0.420850000
C C181   0.505500000   0.498000000   0.269250000
C C182   0.994500000   0.002000000   0.230750000
C C183   0.508700000   0.461100000   0.340850000
C C184   0.991300000   0.038900000   0.159150000
C C185   0.545150000   0.018600000   0.351200000
C C186   0.954850000   0.481400000   0.148800000
C C187   0.540600000   0.449100000   0.419500000
C C188   0.959400000   0.050900000   0.080500000
C C189   0.535500000   0.020900000   0.430050000
C C190   0.964500000   0.479100000   0.069950000
C C191   0.754250000   0.497500000   0.269200000
C C192   0.745750000   0.002500000   0.230800000
C C193   0.745700000   0.464400000   0.341100000
C C194   0.754300000   0.035600000   0.158900000
C C195   0.794750000   0.014300000   0.351100000
C C196   0.705250000   0.485700000   0.148900000
C C197   0.752700000   0.462800000   0.421450000
C C198   0.747300000   0.037200000   0.078550000
C C199   0.831500000   0.486550000   0.423900000
C C200   0.668500000   0.013450000   0.076100000
H H129   0.862963439   0.190326247   0.424365254
H H130   0.637036561   0.309673753   0.075634746
H H131   0.958464849   0.191308124   0.440986780
H H132   0.541535151   0.308691876   0.059013220
H H133   0.975033093   0.298959585   0.424099780
H H134   0.524966907   0.201040415   0.075900220
H H135   0.912743555   0.301111500   0.460334678
H H136   0.587256445   0.198888500   0.039665322
H H137   0.919005546   0.303020778   0.090313597
H H138   0.580994454   0.196979222   0.409686403
H H139   0.881422887   0.244493126   0.046150434
H H140   0.618577113   0.255506874   0.453849566
H H141   0.754164950   0.258973744   0.068268214
H H142   0.745835050   0.241026256   0.431731786
H H143   0.792457178   0.331491018   0.060844971
H H144   0.707542822   0.168508982   0.439155029
H H145   0.514913425   0.427845576   0.440803254
H H146   0.985086575   0.072154424   0.059196746
H H147   0.598156607   0.435026280   0.420372321
H H148   0.901843393   0.064973720   0.079627679
H H149   0.563522457   0.041060284   0.460403413
H H150   0.936477543   0.458939716   0.039596587
H H151   0.978303527   0.035964624   0.428492645
H H152   0.521696473   0.464035376   0.071507355
H H153   0.716630839   0.502134191   0.431584737
H H154   0.783369161   0.997865809   0.068415263
H H155   0.749381833   0.428188242   0.440057151
H H156   0.750618167   0.071811758   0.059942849
H H157   0.867151345   0.448100717   0.411645863
H H158   0.632848655   0.051899283   0.088354137
H H159   0.853332331   0.008726053   0.455160687
H H160   0.646667669   0.491273947   0.044839313
Au Au11   0.803590000   0.124870000   0.500250000
Au Au12   0.696410000   0.375130000   0.999750000
Se Se81   0.921220000   0.191595000   0.787405000
Se Se82   0.578780000   0.308405000   0.712595000
Se Se83   0.833045000   0.318470000   0.812175000
Se Se84   0.666955000   0.181530000   0.687825000
Se Se85   0.902120000   0.202620000   0.691600000
Se Se86   0.597880000   0.297380000   0.808400000
Se Se87   0.811510000   0.328630000   0.714415000
Se Se88   0.688490000   0.171370000   0.785585000
Se Se89   0.969075000   0.427630000   0.786345000
Se Se90   0.530925000   0.072370000   0.713655000
Se Se91   0.556000000   0.062815000   0.810730000
Se Se92   0.944000000   0.437185000   0.689270000
Se Se93   0.701630000   0.435370000   0.786965000
Se Se94   0.798370000   0.064630000   0.713035000
Se Se95   0.820505000   0.052395000   0.809590000
Se Se96   0.679495000   0.447605000   0.690410000
Cl Cl21   0.679115000   0.118715000   0.999600000
Cl Cl22   0.820885000   0.381285000   0.500400000
Cl Cl23   0.928245000   0.129530000   0.500330000
Cl Cl24   0.571755000   0.370470000   0.999670000
S S81   0.939595000   0.170175000   0.871040000
S S82   0.560405000   0.329825000   0.628960000
S S83   0.847845000   0.311980000   0.900560000
S S84   0.652155000   0.188020000   0.599440000
S S85   0.882840000   0.202140000   0.602230000
S S86   0.617160000   0.297860000   0.897770000
S S87   0.784855000   0.341485000   0.628690000
S S88   0.715145000   0.158515000   0.871310000
S S89   0.990595000   0.409655000   0.871000000
S S90   0.509405000   0.090345000   0.629000000
S S91   0.585580000   0.059270000   0.899145000
S S92   0.914420000   0.440730000   0.600855000
S S93   0.715355000   0.417785000   0.871830000
S S94   0.784645000   0.082215000   0.628170000
S S95   0.839475000   0.050885000   0.898680000
S S96   0.660525000   0.449115000   0.601320000
C C201   0.869150000   0.258000000   0.770900000
C C202   0.630850000   0.242000000   0.729100000
C C203   0.861100000   0.261900000   0.732000000
C C204   0.638900000   0.238100000   0.768000000
C C205   0.902600000   0.220400000   0.841650000
C C206   0.597400000   0.279600000   0.658350000
C C207   0.866050000   0.274300000   0.852200000
C C208   0.633950000   0.225700000   0.647800000
C C209   0.862550000   0.241350000   0.650100000
C C210   0.637450000   0.258650000   0.849900000
C C211   0.824000000   0.294350000   0.659950000
C C212   0.676000000   0.205650000   0.840050000
C C213   0.917350000   0.208600000   0.920550000
C C214   0.582650000   0.291400000   0.579450000
C C215   0.921400000   0.280650000   0.929100000
C C216   0.578600000   0.219350000   0.570900000
C C217   0.874150000   0.267150000   0.577300000
C C218   0.625850000   0.232850000   0.922700000
C C219   0.798350000   0.296150000   0.579150000
C C220   0.701650000   0.203850000   0.920850000
C C221   0.505500000   0.498000000   0.769250000
C C222   0.994500000   0.002000000   0.730750000
C C223   0.508700000   0.461100000   0.840850000
C C224   0.991300000   0.038900000   0.659150000
C C225   0.545150000   0.018600000   0.851200000
C C226   0.954850000   0.481400000   0.648800000
C C227   0.540600000   0.449100000   0.919500000
C C228   0.959400000   0.050900000   0.580500000
C C229   0.535500000   0.020900000   0.930050000
C C230   0.964500000   0.479100000   0.569950000
C C231   0.754250000   0.497500000   0.769200000
C C232   0.745750000   0.002500000   0.730800000
C C233   0.745700000   0.464400000   0.841100000
C C234   0.754300000   0.035600000   0.658900000
C C235   0.794750000   0.014300000   0.851100000
C C236   0.705250000   0.485700000   0.648900000
C C237   0.752700000   0.462800000   0.921450000
C C238   0.747300000   0.037200000   0.578550000
C C239   0.831500000   0.486550000   0.923900000
C C240   0.668500000   0.013450000   0.576100000
H H161   0.862963439   0.190326247   0.924365254
H H162   0.637036561   0.309673753   0.575634746
H H163   0.958464849   0.191308124   0.940986780
H H164   0.541535151   0.308691876   0.559013220
H H165   0.975033093   0.298959585   0.924099780
H H166   0.524966907   0.201040415   0.575900220
H H167   0.912743555   0.301111500   0.960334678
H H168   0.587256445   0.198888500   0.539665322
H H169   0.919005546   0.303020778   0.590313597
H H170   0.580994454   0.196979222   0.909686403
H H171   0.881422887   0.244493126   0.546150434
H H172   0.618577113   0.255506874   0.953849566
H H173   0.754164950   0.258973744   0.568268214
H H174   0.745835050   0.241026256   0.931731786
H H175   0.792457178   0.331491018   0.560844971
H H176   0.707542822   0.168508982   0.939155029
H H177   0.514913425   0.427845576   0.940803254
H H178   0.985086575   0.072154424   0.559196746
H H179   0.598156607   0.435026280   0.920372321
H H180   0.901843393   0.064973720   0.579627679
H H181   0.563522457   0.041060284   0.960403413
H H182   0.936477543   0.458939716   0.539596587
H H183   0.978303527   0.035964624   0.928492645
H H184   0.521696473   0.464035376   0.571507355
H H185   0.716630839   0.502134191   0.931584737
H H186   0.783369161   0.997865809   0.568415263
H H187   0.749381833   0.428188242   0.940057151
H H188   0.750618167   0.071811758   0.559942849
H H189   0.867151345   0.448100717   0.911645863
H H190   0.632848655   0.051899283   0.588354137
H H191   0.853332331   0.008726053   0.955160687
H H192   0.646667669   0.491273947   0.544839313
Au Au13   0.803590000   0.624870000   0.000250000
Au Au14   0.696410000   0.875130000   0.499750000
Se Se97   0.921220000   0.691595000   0.287405000
Se Se98   0.578780000   0.808405000   0.212595000
Se Se99   0.833045000   0.818470000   0.312175000
Se Se100   0.666955000   0.681530000   0.187825000
Se Se101   0.902120000   0.702620000   0.191600000
Se Se102   0.597880000   0.797380000   0.308400000
Se Se103   0.811510000   0.828630000   0.214415000
Se Se104   0.688490000   0.671370000   0.285585000
Se Se105   0.969075000   0.927630000   0.286345000
Se Se106   0.530925000   0.572370000   0.213655000
Se Se107   0.556000000   0.562815000   0.310730000
Se Se108   0.944000000   0.937185000   0.189270000
Se Se109   0.701630000   0.935370000   0.286965000
Se Se110   0.798370000   0.564630000   0.213035000
Se Se111   0.820505000   0.552395000   0.309590000
Se Se112   0.679495000   0.947605000   0.190410000
Cl Cl25   0.679115000   0.618715000   0.499600000
Cl Cl26   0.820885000   0.881285000   0.000400000
Cl Cl27   0.928245000   0.629530000   0.000330000
Cl Cl28   0.571755000   0.870470000   0.499670000
S S97   0.939595000   0.670175000   0.371040000
S S98   0.560405000   0.829825000   0.128960000
S S99   0.847845000   0.811980000   0.400560000
S S100   0.652155000   0.688020000   0.099440000
S S101   0.882840000   0.702140000   0.102230000
S S102   0.617160000   0.797860000   0.397770000
S S103   0.784855000   0.841485000   0.128690000
S S104   0.715145000   0.658515000   0.371310000
S S105   0.990595000   0.909655000   0.371000000
S S106   0.509405000   0.590345000   0.129000000
S S107   0.585580000   0.559270000   0.399145000
S S108   0.914420000   0.940730000   0.100855000
S S109   0.715355000   0.917785000   0.371830000
S S110   0.784645000   0.582215000   0.128170000
S S111   0.839475000   0.550885000   0.398680000
S S112   0.660525000   0.949115000   0.101320000
C C241   0.869150000   0.758000000   0.270900000
C C242   0.630850000   0.742000000   0.229100000
C C243   0.861100000   0.761900000   0.232000000
C C244   0.638900000   0.738100000   0.268000000
C C245   0.902600000   0.720400000   0.341650000
C C246   0.597400000   0.779600000   0.158350000
C C247   0.866050000   0.774300000   0.352200000
C C248   0.633950000   0.725700000   0.147800000
C C249   0.862550000   0.741350000   0.150100000
C C250   0.637450000   0.758650000   0.349900000
C C251   0.824000000   0.794350000   0.159950000
C C252   0.676000000   0.705650000   0.340050000
C C253   0.917350000   0.708600000   0.420550000
C C254   0.582650000   0.791400000   0.079450000
C C255   0.921400000   0.780650000   0.429100000
C C256   0.578600000   0.719350000   0.070900000
C C257   0.874150000   0.767150000   0.077300000
C C258   0.625850000   0.732850000   0.422700000
C C259   0.798350000   0.796150000   0.079150000
C C260   0.701650000   0.703850000   0.420850000
C C261   0.505500000   0.998000000   0.269250000
C C262   0.994500000   0.502000000   0.230750000
C C263   0.508700000   0.961100000   0.340850000
C C264   0.991300000   0.538900000   0.159150000
C C265   0.545150000   0.518600000   0.351200000
C C266   0.954850000   0.981400000   0.148800000
C C267   0.540600000   0.949100000   0.419500000
C C268   0.959400000   0.550900000   0.080500000
C C269   0.535500000   0.520900000   0.430050000
C C270   0.964500000   0.979100000   0.069950000
C C271   0.754250000   0.997500000   0.269200000
C C272   0.745750000   0.502500000   0.230800000
C C273   0.745700000   0.964400000   0.341100000
C C274   0.754300000   0.535600000   0.158900000
C C275   0.794750000   0.514300000   0.351100000
C C276   0.705250000   0.985700000   0.148900000
C C277   0.752700000   0.962800000   0.421450000
C C278   0.747300000   0.537200000   0.078550000
C C279   0.831500000   0.986550000   0.423900000
C C280   0.668500000   0.513450000   0.076100000
H H193   0.862963439   0.690326247   0.424365254
H H194   0.637036561   0.809673753   0.075634746
H H195   0.958464849   0.691308124   0.440986780
H H196   0.541535151   0.808691876   0.059013220
H H197   0.975033093   0.798959585   0.424099780
H H198   0.524966907   0.701040415   0.075900220
H H199   0.912743555   0.801111500   0.460334678
H H200   0.587256445   0.698888500   0.039665322
H H201   0.919005546   0.803020778   0.090313597
H H202   0.580994454   0.696979222   0.409686403
H H203   0.881422887   0.744493126   0.046150434
H H204   0.618577113   0.755506874   0.453849566
H H205   0.754164950   0.758973744   0.068268214
H H206   0.745835050   0.741026256   0.431731786
H H207   0.792457178   0.831491018   0.060844971
H H208   0.707542822   0.668508982   0.439155029
H H209   0.514913425   0.927845576   0.440803254
H H210   0.985086575   0.572154424   0.059196746
H H211   0.598156607   0.935026280   0.420372321
H H212   0.901843393   0.564973720   0.079627679
H H213   0.563522457   0.541060284   0.460403413
H H214   0.936477543   0.958939716   0.039596587
H H215   0.978303527   0.535964624   0.428492645
H H216   0.521696473   0.964035376   0.071507355
H H217   0.716630839   0.002134191   0.431584737
H H218   0.783369161   0.497865809   0.068415263
H H219   0.749381833   0.928188242   0.440057151
H H220   0.750618167   0.571811758   0.059942849
H H221   0.867151345   0.948100717   0.411645863
H H222   0.632848655   0.551899283   0.088354137
H H223   0.853332331   0.508726053   0.455160687
H H224   0.646667669   0.991273947   0.044839313
Au Au15   0.803590000   0.624870000   0.500250000
Au Au16   0.696410000   0.875130000   0.999750000
Se Se113   0.921220000   0.691595000   0.787405000
Se Se114   0.578780000   0.808405000   0.712595000
Se Se115   0.833045000   0.818470000   0.812175000
Se Se116   0.666955000   0.681530000   0.687825000
Se Se117   0.902120000   0.702620000   0.691600000
Se Se118   0.597880000   0.797380000   0.808400000
Se Se119   0.811510000   0.828630000   0.714415000
Se Se120   0.688490000   0.671370000   0.785585000
Se Se121   0.969075000   0.927630000   0.786345000
Se Se122   0.530925000   0.572370000   0.713655000
Se Se123   0.556000000   0.562815000   0.810730000
Se Se124   0.944000000   0.937185000   0.689270000
Se Se125   0.701630000   0.935370000   0.786965000
Se Se126   0.798370000   0.564630000   0.713035000
Se Se127   0.820505000   0.552395000   0.809590000
Se Se128   0.679495000   0.947605000   0.690410000
Cl Cl29   0.679115000   0.618715000   0.999600000
Cl Cl30   0.820885000   0.881285000   0.500400000
Cl Cl31   0.928245000   0.629530000   0.500330000
Cl Cl32   0.571755000   0.870470000   0.999670000
S S113   0.939595000   0.670175000   0.871040000
S S114   0.560405000   0.829825000   0.628960000
S S115   0.847845000   0.811980000   0.900560000
S S116   0.652155000   0.688020000   0.599440000
S S117   0.882840000   0.702140000   0.602230000
S S118   0.617160000   0.797860000   0.897770000
S S119   0.784855000   0.841485000   0.628690000
S S120   0.715145000   0.658515000   0.871310000
S S121   0.990595000   0.909655000   0.871000000
S S122   0.509405000   0.590345000   0.629000000
S S123   0.585580000   0.559270000   0.899145000
S S124   0.914420000   0.940730000   0.600855000
S S125   0.715355000   0.917785000   0.871830000
S S126   0.784645000   0.582215000   0.628170000
S S127   0.839475000   0.550885000   0.898680000
S S128   0.660525000   0.949115000   0.601320000
C C281   0.869150000   0.758000000   0.770900000
C C282   0.630850000   0.742000000   0.729100000
C C283   0.861100000   0.761900000   0.732000000
C C284   0.638900000   0.738100000   0.768000000
C C285   0.902600000   0.720400000   0.841650000
C C286   0.597400000   0.779600000   0.658350000
C C287   0.866050000   0.774300000   0.852200000
C C288   0.633950000   0.725700000   0.647800000
C C289   0.862550000   0.741350000   0.650100000
C C290   0.637450000   0.758650000   0.849900000
C C291   0.824000000   0.794350000   0.659950000
C C292   0.676000000   0.705650000   0.840050000
C C293   0.917350000   0.708600000   0.920550000
C C294   0.582650000   0.791400000   0.579450000
C C295   0.921400000   0.780650000   0.929100000
C C296   0.578600000   0.719350000   0.570900000
C C297   0.874150000   0.767150000   0.577300000
C C298   0.625850000   0.732850000   0.922700000
C C299   0.798350000   0.796150000   0.579150000
C C300   0.701650000   0.703850000   0.920850000
C C301   0.505500000   0.998000000   0.769250000
C C302   0.994500000   0.502000000   0.730750000
C C303   0.508700000   0.961100000   0.840850000
C C304   0.991300000   0.538900000   0.659150000
C C305   0.545150000   0.518600000   0.851200000
C C306   0.954850000   0.981400000   0.648800000
C C307   0.540600000   0.949100000   0.919500000
C C308   0.959400000   0.550900000   0.580500000
C C309   0.535500000   0.520900000   0.930050000
C C310   0.964500000   0.979100000   0.569950000
C C311   0.754250000   0.997500000   0.769200000
C C312   0.745750000   0.502500000   0.730800000
C C313   0.745700000   0.964400000   0.841100000
C C314   0.754300000   0.535600000   0.658900000
C C315   0.794750000   0.514300000   0.851100000
C C316   0.705250000   0.985700000   0.648900000
C C317   0.752700000   0.962800000   0.921450000
C C318   0.747300000   0.537200000   0.578550000
C C319   0.831500000   0.986550000   0.923900000
C C320   0.668500000   0.513450000   0.576100000
H H225   0.862963439   0.690326247   0.924365254
H H226   0.637036561   0.809673753   0.575634746
H H227   0.958464849   0.691308124   0.940986780
H H228   0.541535151   0.808691876   0.559013220
H H229   0.975033093   0.798959585   0.924099780
H H230   0.524966907   0.701040415   0.575900220
H H231   0.912743555   0.801111500   0.960334678
H H232   0.587256445   0.698888500   0.539665322
H H233   0.919005546   0.803020778   0.590313597
H H234   0.580994454   0.696979222   0.909686403
H H235   0.881422887   0.744493126   0.546150434
H H236   0.618577113   0.755506874   0.953849566
H H237   0.754164950   0.758973744   0.568268214
H H238   0.745835050   0.741026256   0.931731786
H H239   0.792457178   0.831491018   0.560844971
H H240   0.707542822   0.668508982   0.939155029
H H241   0.514913425   0.927845576   0.940803254
H H242   0.985086575   0.572154424   0.559196746
H H243   0.598156607   0.935026280   0.920372321
H H244   0.901843393   0.564973720   0.579627679
H H245   0.563522457   0.541060284   0.960403413
H H246   0.936477543   0.958939716   0.539596587
H H247   0.978303527   0.535964624   0.928492645
H H248   0.521696473   0.964035376   0.571507355
H H249   0.716630839   0.002134191   0.931584737
H H250   0.783369161   0.497865809   0.568415263
H H251   0.749381833   0.928188242   0.940057151
H H252   0.750618167   0.571811758   0.559942849
H H253   0.867151345   0.948100717   0.911645863
H H254   0.632848655   0.551899283   0.588354137
H H255   0.853332331   0.508726053   0.955160687
H H256   0.646667669   0.991273947   0.544839313
